/PSS(R)E 35
COM
COM CONTINGENCY description file entry created by PSS(R)E Config File Builder
COM
SINGLE BRANCH IN SUBSYSTEM 'KBA'
PARALLEL BRANCH IN SUBSYSTEM 'KBA'
SINGLE TIE FROM SUBSYSTEM 'KBA'
PARALLEL TIE FROM SUBSYSTEM 'KBA'
END
