/PSS(R)E 35
COM
COM MONITORED element file entry created by PSS(R)E Config File Builder
COM
MONITOR BRANCHES IN SUBSYSTEM 'KBA'
MONITOR TIES FROM SUBSYSTEM 'KBA'
END
