1...............................................................................................................................................................
 .                                         PTI INTERACTIVE POWER SYSTEM SIMULATOR--PSS(R)E     THU, JUN 09 2022  15:00                                  PAGE 1 .
 .                                                                                                                                                             .
 .                                                08.06.2022 11:00 SAATINE AIT SNAPSHOT FULL TEIAS DOSYASIDIR.                                                 .
 .                                                                                                                                                             .
 .                                                                                                                                                             .
 .                                   *** DCCC OVERLOAD REPORT: MONITORED ELEMENTS LOADED ABOVE  90.0 OF RATING SET  1 ***                                    .
 ...............................................................................................................................................................

 DISTRIBUTION FACTOR FILE:     kba.dfx

                                                              <------------- O V E R L O A D E D   L I N E S -------------->  <--- MW FLOW --->
 <----------- C O N T I N G E N C Y   E V E N T S -----------><--------- F R O M ---------> <----------- T O ----------->CKT  PRE-CNT  POST-CNT  RATING  PERCENT
 OPEN LINE FROM BUS 210111 [TEPEOREN    400.00] TO BUS 210121 [TEPEOREN    154.00] CKT 1 -------------------------- CONTINGENCY SINGLE OPN LIN 13 210111-210121(
                                                              210111     TEPEOREN    400.00 210121     TEPEOREN    154.00 2     163.2    230.5    250.0     92.2
 OPEN LINE FROM BUS 210111 [TEPEOREN    400.00] TO BUS 210121 [TEPEOREN    154.00] CKT 2 -------------------------- CONTINGENCY SINGLE OPN LIN 14 210111-210121(
                                                              210111     TEPEOREN    400.00 210121     TEPEOREN    154.00 1     164.1    231.3    250.0     92.5
 OPEN LINE FROM BUS 210111 [TEPEOREN    400.00] TO BUS 214310 [DILISKELESIG400.00] CKT 1 -------------------------- CONTINGENCY SINGLE OPN LIN 20 210111-214310(
                                                              210122     TEPEOREN    154.00 211822     GEBZEOSB    154.00 1     123.0    230.5    250.0     92.2
                                                              214810     MAKINAOSB   400.00 214821     MAKINAOSB   154.00 1     128.9    230.3    245.8     93.7
                                                              214822     MAKINAOSB   154.00 217221     SIDDIK      154.00 1     106.0    229.0    250.0     91.6
 OPEN LINE FROM BUS 210311 [ADAPAZARI   400.00] TO BUS 210321 [ADAPAZARI   154.00] CKT 1 -------------------------- CONTINGENCY SINGLE OPN LIN 49 210311-210321(
                                                              210311     ADAPAZARI   400.00 210321     ADAPAZARI   154.00 2     188.6    249.1    249.0    100.1
 OPEN LINE FROM BUS 210311 [ADAPAZARI   400.00] TO BUS 210321 [ADAPAZARI   154.00] CKT 2 -------------------------- CONTINGENCY SINGLE OPN LIN 50 210311-210321(
                                                              210311     ADAPAZARI   400.00 210321     ADAPAZARI   154.00 1     185.6    246.5    249.0     99.0
 OPEN LINE FROM BUS 211522 [COLAKOGLU   154.00] TO BUS 214322 [DILISKELESIG154.00] CKT 1 -------------------------- CONTINGENCY SINGLE OPN LIN 96 211522-214322(
                                                              214822     MAKINAOSB   154.00 217221     SIDDIK      154.00 1     106.0    261.9    250.0    104.7
 OPEN LINE FROM BUS 212521 [KOSEKOY     154.00] TO BUS 215021 [GOLCUK      154.00] CKT 1 -------------------------- CONTINGENCY SINGLE OPN LIN 109 212521-215021
                                                              220510     SEYITOMER   400.00 220521     SEYITOMER   154.00 1     135.0    136.4    142.5     95.7
 OPEN LINE FROM BUS 212521 [KOSEKOY     154.00] TO BUS 215122 [ARSLANBEY   154.00] CKT 1 -------------------------- CONTINGENCY SINGLE OPN LIN 110 212521-215122
                                                              220510     SEYITOMER   400.00 220521     SEYITOMER   154.00 1     135.0    136.4    142.5     95.7
 OPEN LINE FROM BUS 214310 [DILISKELESIG400.00] TO BUS 214322 [DILISKELESIG154.00] CKT 1 -------------------------- CONTINGENCY SINGLE OPN LIN 136 214310-214322
                                                              214311     DILISKELESIG400.00 214322     DILISKELESIG154.00 1     157.6    230.3    249.9     92.2
 OPEN LINE FROM BUS 214311 [DILISKELESIG400.00] TO BUS 214322 [DILISKELESIG154.00] CKT 1 -------------------------- CONTINGENCY SINGLE OPN LIN 137 214311-214322
                                                              214310     DILISKELESIG400.00 214322     DILISKELESIG154.00 1     158.3    230.8    249.9     92.4
 OPEN LINE FROM BUS 215721 [HABASBILECIK154.00] TO BUS 220321 [TUNCBILEK-A 154.00] CKT 1 -------------------------- CONTINGENCY SINGLE OPN LIN 151 215721-220321
                                                              220510     SEYITOMER   400.00 220521     SEYITOMER   154.00 1     135.0    132.5    142.5     93.0
 OPEN LINE FROM BUS 215821 [ASILDEMIRCLK154.00] TO BUS 220621 [KARSAK      154.00] CKT 1 -------------------------- CONTINGENCY SINGLE OPN LIN 153 215821-220621
                                                              220510     SEYITOMER   400.00 220521     SEYITOMER   154.00 1     135.0    136.0    142.5     95.4
 OPEN LINE FROM BUS 216121 [DINCERCIM   154.00] TO BUS 222221 [PASALAR     154.00] CKT 1 -------------------------- CONTINGENCY SINGLE OPN LIN 156 216121-222221
                                                              220510     SEYITOMER   400.00 220521     SEYITOMER   154.00 1     135.0    130.9    142.5     91.8
 OPEN LINE FROM BUS 216121 [DINCERCIM   154.00] TO BUS 225521 [MERYEMRES   154.00] CKT 1 -------------------------- CONTINGENCY SINGLE OPN LIN 157 216121-225521
                                                              220510     SEYITOMER   400.00 220521     SEYITOMER   154.00 1     135.0    129.8    142.5     91.1
 OPEN LINE FROM BUS 220010 [BURSADG     400.00] TO BUS 220021 [BURSADG     154.00] CKT 1 -------------------------- CONTINGENCY SINGLE OPN LIN 172 220010-220021
                                                              220010     BURSADG     400.00 220021     BURSADG     154.00 2     192.7    306.1    249.3    122.8
                                                              220011     BURSADG     400.00 220024     BURSADG     154.00 1     201.7    225.8    249.2     90.6
                                                              220510     SEYITOMER   400.00 220521     SEYITOMER   154.00 1     135.0    137.4    142.5     96.4
 OPEN LINE FROM BUS 220010 [BURSADG     400.00] TO BUS 220021 [BURSADG     154.00] CKT 2 -------------------------- CONTINGENCY SINGLE OPN LIN 173 220010-220021
                                                              220010     BURSADG     400.00 220021     BURSADG     154.00 1     192.7    306.1    249.3    122.8
                                                              220011     BURSADG     400.00 220024     BURSADG     154.00 1     201.7    225.8    249.2     90.6
                                                              220510     SEYITOMER   400.00 220521     SEYITOMER   154.00 1     135.0    137.4    142.5     96.4
 OPEN LINE FROM BUS 220011 [BURSADG     400.00] TO BUS 220024 [BURSADG     154.00] CKT 1 -------------------------- CONTINGENCY SINGLE OPN LIN 175 220011-220024
                                                              220510     SEYITOMER   400.00 220521     SEYITOMER   154.00 1     135.0    139.0    142.5     97.5
 OPEN LINE FROM BUS 220011 [BURSADG     400.00] TO BUS 220110 [BURSASANAYI 400.00] CKT 1 -------------------------- CONTINGENCY SINGLE OPN LIN 176 220011-220110
                                                              220510     SEYITOMER   400.00 220521     SEYITOMER   154.00 1     135.0    136.4    142.5     95.7
 OPEN LINE FROM BUS 220022 [BURSADG     154.00] TO BUS 220721 [GEMLIK      154.00] CKT 1 -------------------------- CONTINGENCY SINGLE OPN LIN 179 220022-220721
                                                              220510     SEYITOMER   400.00 220521     SEYITOMER   154.00 1     135.0    136.0    142.5     95.4
 OPEN LINE FROM BUS 220022 [BURSADG     154.00] TO BUS 220821 [ORHANGAZI   154.00] CKT 1 -------------------------- CONTINGENCY SINGLE OPN LIN 180 220022-220821
                                                              220510     SEYITOMER   400.00 220521     SEYITOMER   154.00 1     135.0    136.9    142.5     96.0
 OPEN LINE FROM BUS 220024 [BURSADG     154.00] TO BUS 220621 [KARSAK      154.00] CKT 1 -------------------------- CONTINGENCY SINGLE OPN LIN 184 220024-220621
                                                              220510     SEYITOMER   400.00 220521     SEYITOMER   154.00 1     135.0    136.1    142.5     95.5
 OPEN LINE FROM BUS 220110 [BURSASANAYI 400.00] TO BUS 220122 [BURSASANAYI 154.00] CKT 1 -------------------------- CONTINGENCY SINGLE OPN LIN 186 220110-220122
                                                              220110     BURSASANAYI 400.00 220122     BURSASANAYI 154.00 2     177.6    233.5    246.5     94.7
 OPEN LINE FROM BUS 220110 [BURSASANAYI 400.00] TO BUS 220122 [BURSASANAYI 154.00] CKT 2 -------------------------- CONTINGENCY SINGLE OPN LIN 187 220110-220122
                                                              220110     BURSASANAYI 400.00 220122     BURSASANAYI 154.00 1     173.2    229.5    246.7     93.1
 OPEN LINE FROM BUS 220111 [BURSASANAYI 400.00] TO BUS 220210 [GURAGAC     400.00] CKT 1 -------------------------- CONTINGENCY SINGLE OPN LIN 191 220111-220210
                                                              220510     SEYITOMER   400.00 220521     SEYITOMER   154.00 1     135.0    155.0    142.5    108.8
 OPEN LINE FROM BUS 220210 [GURAGAC     400.00] TO BUS 220510 [SEYITOMER   400.00] CKT 1 -------------------------- CONTINGENCY SINGLE OPN LIN 198 220210-220510
                                                              220510     SEYITOMER   400.00 220521     SEYITOMER   154.00 1     135.0    158.2    142.5    111.0
 OPEN LINE FROM BUS 220221 [GURAGAC     154.00] TO BUS 220421 [TUNCBILEK-B 154.00] CKT 1 -------------------------- CONTINGENCY SINGLE OPN LIN 199 220221-220421
                                                              220510     SEYITOMER   400.00 220521     SEYITOMER   154.00 1     135.0    131.8    142.5     92.5
 OPEN LINE FROM BUS 220221 [GURAGAC     154.00] TO BUS 223321 [KUTAHYA     154.00] CKT 1 -------------------------- CONTINGENCY SINGLE OPN LIN 200 220221-223321
                                                              220510     SEYITOMER   400.00 220521     SEYITOMER   154.00 1     135.0    133.5    142.5     93.7
 OPEN LINE FROM BUS 220221 [GURAGAC     154.00] TO BUS 224921 [POLATTES    154.00] CKT 1 -------------------------- CONTINGENCY SINGLE OPN LIN 202 220221-224921
                                                              220510     SEYITOMER   400.00 220521     SEYITOMER   154.00 1     135.0    150.4    142.5    105.6
 OPEN LINE FROM BUS 220321 [TUNCBILEK-A 154.00] TO BUS 222822 [ESKISEHIR3  154.00] CKT 1 -------------------------- CONTINGENCY SINGLE OPN LIN 205 220321-222822
                                                              220510     SEYITOMER   400.00 220521     SEYITOMER   154.00 1     135.0    138.3    142.5     97.0
 OPEN LINE FROM BUS 220511 [SEYITOMER   400.00] TO BUS 222811 [ESKISEHIR3  400.00] CKT 1 -------------------------- CONTINGENCY SINGLE OPN LIN 208 220511-222811
                                                              220510     SEYITOMER   400.00 220521     SEYITOMER   154.00 1     135.0    180.8    142.5    126.9
 OPEN LINE FROM BUS 220821 [ORHANGAZI   154.00] TO BUS 222221 [PASALAR     154.00] CKT 1 -------------------------- CONTINGENCY SINGLE OPN LIN 212 220821-222221
                                                              220510     SEYITOMER   400.00 220521     SEYITOMER   154.00 1     135.0    132.0    142.5     92.6
 OPEN LINE FROM BUS 222221 [PASALAR     154.00] TO BUS 222321 [BILORSA     154.00] CKT 1 -------------------------- CONTINGENCY SINGLE OPN LIN 232 222221-222321
                                                              220510     SEYITOMER   400.00 220521     SEYITOMER   154.00 1     135.0    130.1    142.5     91.3
 OPEN LINE FROM BUS 222421 [SOGUT       154.00] TO BUS 225521 [MERYEMRES   154.00] CKT 1 -------------------------- CONTINGENCY SINGLE OPN LIN 234 222421-225521
                                                              220510     SEYITOMER   400.00 220521     SEYITOMER   154.00 1     135.0    129.8    142.5     91.1
 OPEN LINE FROM BUS 222521 [BOZUYUK     154.00] TO BUS 224521 [VITRAKARO   154.00] CKT 1 -------------------------- CONTINGENCY SINGLE OPN LIN 235 222521-224521
                                                              220510     SEYITOMER   400.00 220521     SEYITOMER   154.00 1     135.0    136.8    142.5     96.0
 OPEN LINE FROM BUS 222521 [BOZUYUK     154.00] TO BUS 225621 [KARTALRES   154.00] CKT 1 -------------------------- CONTINGENCY SINGLE OPN LIN 237 222521-225621
                                                              220510     SEYITOMER   400.00 220521     SEYITOMER   154.00 1     135.0    141.5    142.5     99.3
 OPEN LINE FROM BUS 222621 [ESKISEHIR1  154.00] TO BUS 222822 [ESKISEHIR3  154.00] CKT 1 -------------------------- CONTINGENCY SINGLE OPN LIN 239 222621-222822
                                                              220510     SEYITOMER   400.00 220521     SEYITOMER   154.00 1     135.0    131.9    142.5     92.6
 OPEN LINE FROM BUS 222721 [ESKISEHIR2  154.00] TO BUS 222821 [ESKISEHIR3  154.00] CKT 1 -------------------------- CONTINGENCY SINGLE OPN LIN 240 222721-222821
                                                              220510     SEYITOMER   400.00 220521     SEYITOMER   154.00 1     135.0    137.9    142.5     96.8
 OPEN LINE FROM BUS 222721 [ESKISEHIR2  154.00] TO BUS 227921 [ESKISEHIROSB154.00] CKT 1 -------------------------- CONTINGENCY SINGLE OPN LIN 242 222721-227921
                                                              220510     SEYITOMER   400.00 220521     SEYITOMER   154.00 1     135.0    139.7    142.5     98.0
 OPEN LINE FROM BUS 222810 [ESKISEHIR3  400.00] TO BUS 222822 [ESKISEHIR3  154.00] CKT 1 -------------------------- CONTINGENCY SINGLE OPN LIN 243 222810-222822
                                                              220510     SEYITOMER   400.00 220521     SEYITOMER   154.00 1     135.0    142.4    142.5     99.9
 OPEN LINE FROM BUS 222810 [ESKISEHIR3  400.00] TO BUS 222822 [ESKISEHIR3  154.00] CKT 2 -------------------------- CONTINGENCY SINGLE OPN LIN 244 222810-222822
                                                              220510     SEYITOMER   400.00 220521     SEYITOMER   154.00 1     135.0    147.9    142.5    103.8
 OPEN LINE FROM BUS 222811 [ESKISEHIR3  400.00] TO BUS 222821 [ESKISEHIR3  154.00] CKT 1 -------------------------- CONTINGENCY SINGLE OPN LIN 245 222811-222821
                                                              220510     SEYITOMER   400.00 220521     SEYITOMER   154.00 1     135.0    146.8    142.5    103.0
 OPEN LINE FROM BUS 222811 [ESKISEHIR3  400.00] TO BUS 222821 [ESKISEHIR3  154.00] CKT 2 -------------------------- CONTINGENCY SINGLE OPN LIN 246 222811-222821
                                                              220510     SEYITOMER   400.00 220521     SEYITOMER   154.00 1     135.0    147.9    142.5    103.8
 OPEN LINE FROM BUS 222821 [ESKISEHIR3  154.00] TO BUS 224121 [ESKISEHIRCIM154.00] CKT 1 -------------------------- CONTINGENCY SINGLE OPN LIN 247 222821-224121
                                                              220510     SEYITOMER   400.00 220521     SEYITOMER   154.00 1     135.0    157.8    142.5    110.7
 OPEN LINE FROM BUS 222821 [ESKISEHIR3  154.00] TO BUS 227921 [ESKISEHIROSB154.00] CKT 1 -------------------------- CONTINGENCY SINGLE OPN LIN 248 222821-227921
                                                              220510     SEYITOMER   400.00 220521     SEYITOMER   154.00 1     135.0    138.9    142.5     97.4
 OPEN LINE FROM BUS 222822 [ESKISEHIR3  154.00] TO BUS 225621 [KARTALRES   154.00] CKT 1 -------------------------- CONTINGENCY SINGLE OPN LIN 249 222822-225621
                                                              220510     SEYITOMER   400.00 220521     SEYITOMER   154.00 1     135.0    141.6    142.5     99.4
 OPEN LINE FROM BUS 222822 [ESKISEHIR3  154.00] TO BUS 227922 [ESKISEHIROSB154.00] CKT 1 -------------------------- CONTINGENCY SINGLE OPN LIN 250 222822-227922
                                                              220510     SEYITOMER   400.00 220521     SEYITOMER   154.00 1     135.0    138.9    142.5     97.4
 OPEN LINE FROM BUS 222921 [CIFTELER    154.00] TO BUS 223621 [KIRKA       154.00] CKT 1 -------------------------- CONTINGENCY SINGLE OPN LIN 251 222921-223621
                                                              220510     SEYITOMER   400.00 220521     SEYITOMER   154.00 1     135.0    129.0    142.5     90.5
 OPEN LINE FROM BUS 223121 [SIMAV       154.00] TO BUS 223221 [GEDIZ       154.00] CKT 1 -------------------------- CONTINGENCY SINGLE OPN LIN 252 223121-223221
                                                              220510     SEYITOMER   400.00 220521     SEYITOMER   154.00 1     135.0    133.7    142.5     93.8
 OPEN LINE FROM BUS 223221 [GEDIZ       154.00] TO BUS 223821 [EMET        154.00] CKT 1 -------------------------- CONTINGENCY SINGLE OPN LIN 253 223221-223821
                                                              220510     SEYITOMER   400.00 220521     SEYITOMER   154.00 1     135.0    140.4    142.5     98.5
 OPEN LINE FROM BUS 223321 [KUTAHYA     154.00] TO BUS 223521 [AZOT        154.00] CKT 1 -------------------------- CONTINGENCY SINGLE OPN LIN 254 223321-223521
                                                              220510     SEYITOMER   400.00 220521     SEYITOMER   154.00 1     135.0    130.5    142.5     91.6
 OPEN LINE FROM BUS 223321 [KUTAHYA     154.00] TO BUS 223523 [AZOT        154.00] CKT 1 -------------------------- CONTINGENCY SINGLE OPN LIN 256 223321-223523
                                                              220510     SEYITOMER   400.00 220521     SEYITOMER   154.00 1     135.0    132.8    142.5     93.2
 OPEN LINE FROM BUS 223321 [KUTAHYA     154.00] TO BUS 224422 [ETIGUMUS    154.00] CKT 1 -------------------------- CONTINGENCY SINGLE OPN LIN 257 223321-224422
                                                              220510     SEYITOMER   400.00 220521     SEYITOMER   154.00 1     135.0    131.4    142.5     92.2
 OPEN LINE FROM BUS 223421 [ALTINTAS    154.00] TO BUS 225821 [KUTAHYAOSB  154.00] CKT 1 -------------------------- CONTINGENCY SINGLE OPN LIN 258 223421-225821
                                                              220510     SEYITOMER   400.00 220521     SEYITOMER   154.00 1     135.0    136.1    142.5     95.5
 OPEN LINE FROM BUS 223821 [EMET        154.00] TO BUS 224922 [POLATTES    154.00] CKT 1 -------------------------- CONTINGENCY SINGLE OPN LIN 260 223821-224922
                                                              220510     SEYITOMER   400.00 220521     SEYITOMER   154.00 1     135.0    141.5    142.5     99.3
 OPEN LINE FROM BUS 224121 [ESKISEHIRCIM154.00] TO BUS 225121 [BOZUYUKOSB  154.00] CKT 1 -------------------------- CONTINGENCY SINGLE OPN LIN 262 224121-225121
                                                              220510     SEYITOMER   400.00 220521     SEYITOMER   154.00 1     135.0    155.9    142.5    109.4
 OPEN LINE FROM BUS 224521 [VITRAKARO   154.00] TO BUS 225122 [BOZUYUKOSB  154.00] CKT 1 -------------------------- CONTINGENCY SINGLE OPN LIN 263 224521-225122
                                                              220510     SEYITOMER   400.00 220521     SEYITOMER   154.00 1     135.0    140.0    142.5     98.2
 OPEN LINE FROM BUS 227211 [ULUDAG      400.00] TO BUS 227221 [ULUDAG      154.00] CKT 1 -------------------------- CONTINGENCY SINGLE OPN LIN 268 227211-227221
                                                              227211     ULUDAG      400.00 227221     ULUDAG      154.00 2     171.1    235.3    250.0     94.1
 OPEN LINE FROM BUS 227211 [ULUDAG      400.00] TO BUS 227221 [ULUDAG      154.00] CKT 2 -------------------------- CONTINGENCY SINGLE OPN LIN 269 227211-227221
                                                              227211     ULUDAG      400.00 227221     ULUDAG      154.00 1     170.1    234.5    250.0     93.8
 OPEN LINE FROM BUS 231121 [OSMANCA     154.00] TO BUS 233921 [DUZCEOSB    154.00] CKT 1 -------------------------- CONTINGENCY SINGLE OPN LIN 300 231121-233921
                                                              234421     BOLU1       154.00 412421     SARIYAR     154.00 1     -94.8   -172.0    178.7     96.3
 OPEN LINE FROM BUS 210121 [TEPEOREN    154.00] TO BUS 211821 [GEBZEOSB    154.00] CKT 1 -------------------------- CONTINGENCY DOUBLE OPN LIN 5(210121-211821(1
 OPEN LINE FROM BUS 210121 [TEPEOREN    154.00] TO BUS 211821 [GEBZEOSB    154.00] CKT 2
                                                              220510     SEYITOMER   400.00 220521     SEYITOMER   154.00 1     135.0    133.7    142.5     93.8
 OPEN LINE FROM BUS 210310 [ADAPAZARI   400.00] TO BUS 210322 [ADAPAZARI   154.00] CKT 1 -------------------------- CONTINGENCY DOUBLE OPN LIN 10(210310-210322(
 OPEN LINE FROM BUS 210310 [ADAPAZARI   400.00] TO BUS 210322 [ADAPAZARI   154.00] CKT 2
                                                              212921     HENDEK      154.00 233221     CUMAYERI    154.00 1     -84.9   -177.2    180.0     98.4
                                                              231121     OSMANCA     154.00 233221     CUMAYERI    154.00 1     100.1    192.3    180.0    106.8
 OPEN LINE FROM BUS 214210 [KOCAELI     400.00] TO BUS 214222 [KOCAELI     154.00] CKT 1 -------------------------- CONTINGENCY DOUBLE OPN LIN 18(214210-214222(
 OPEN LINE FROM BUS 214210 [KOCAELI     400.00] TO BUS 214222 [KOCAELI     154.00] CKT 2
                                                              210311     ADAPAZARI   400.00 210321     ADAPAZARI   154.00 1     185.6    249.9    249.0    100.4
                                                              210311     ADAPAZARI   400.00 210321     ADAPAZARI   154.00 2     188.6    253.9    249.0    102.0
 OPEN LINE FROM BUS 220010 [BURSADG     400.00] TO BUS 220021 [BURSADG     154.00] CKT 1 -------------------------- CONTINGENCY DOUBLE OPN LIN 20(220010-220021(
 OPEN LINE FROM BUS 220010 [BURSADG     400.00] TO BUS 220021 [BURSADG     154.00] CKT 2
                                                              220011     BURSADG     400.00 220024     BURSADG     154.00 1     201.7    318.7    249.2    127.9
                                                              220510     SEYITOMER   400.00 220521     SEYITOMER   154.00 1     135.0    147.0    142.5    103.1
 OPEN LINE FROM BUS 220110 [BURSASANAYI 400.00] TO BUS 220122 [BURSASANAYI 154.00] CKT 1 -------------------------- CONTINGENCY DOUBLE OPN LIN 21(220110-220122(
 OPEN LINE FROM BUS 220110 [BURSASANAYI 400.00] TO BUS 220122 [BURSASANAYI 154.00] CKT 2
                                                              220111     BURSASANAYI 400.00 220121     BURSASANAYI 154.00 1     154.8    227.4    249.6     91.1
                                                              220111     BURSASANAYI 400.00 220121     BURSASANAYI 154.00 2     158.7    233.2    249.5     93.4
                                                              220111     BURSASANAYI 400.00 220121     BURSASANAYI 154.00 3     154.2    226.5    249.6     90.8
 OPEN LINE FROM BUS 220111 [BURSASANAYI 400.00] TO BUS 220121 [BURSASANAYI 154.00] CKT 1 -------------------------- CONTINGENCY DOUBLE OPN LIN 22(220111-220121(
 OPEN LINE FROM BUS 220111 [BURSASANAYI 400.00] TO BUS 220121 [BURSASANAYI 154.00] CKT 2
                                                              220110     BURSASANAYI 400.00 220122     BURSASANAYI 154.00 1     173.2    228.1    246.7     92.5
                                                              220110     BURSASANAYI 400.00 220122     BURSASANAYI 154.00 2     177.6    233.8    246.5     94.9
                                                              220111     BURSASANAYI 400.00 220121     BURSASANAYI 154.00 3     154.2    252.6    249.6    101.2
 OPEN LINE FROM BUS 220111 [BURSASANAYI 400.00] TO BUS 220121 [BURSASANAYI 154.00] CKT 1 -------------------------- CONTINGENCY DOUBLE OPN LIN 23(220111-220121(
 OPEN LINE FROM BUS 220111 [BURSASANAYI 400.00] TO BUS 220121 [BURSASANAYI 154.00] CKT 3
                                                              220110     BURSASANAYI 400.00 220122     BURSASANAYI 154.00 1     173.2    226.8    246.7     91.9
                                                              220110     BURSASANAYI 400.00 220122     BURSASANAYI 154.00 2     177.6    232.5    246.5     94.3
                                                              220111     BURSASANAYI 400.00 220121     BURSASANAYI 154.00 2     158.7    257.6    249.5    103.2
 OPEN LINE FROM BUS 220111 [BURSASANAYI 400.00] TO BUS 220121 [BURSASANAYI 154.00] CKT 2 -------------------------- CONTINGENCY DOUBLE OPN LIN 24(220111-220121(
 OPEN LINE FROM BUS 220111 [BURSASANAYI 400.00] TO BUS 220121 [BURSASANAYI 154.00] CKT 3
                                                              220110     BURSASANAYI 400.00 220122     BURSASANAYI 154.00 1     173.2    227.9    246.7     92.4
                                                              220110     BURSASANAYI 400.00 220122     BURSASANAYI 154.00 2     177.6    233.7    246.5     94.8
                                                              220111     BURSASANAYI 400.00 220121     BURSASANAYI 154.00 1     154.8    253.3    249.6    101.5
 OPEN LINE FROM BUS 222810 [ESKISEHIR3  400.00] TO BUS 222822 [ESKISEHIR3  154.00] CKT 1 -------------------------- CONTINGENCY DOUBLE OPN LIN 25(222810-222822(
 OPEN LINE FROM BUS 222810 [ESKISEHIR3  400.00] TO BUS 222822 [ESKISEHIR3  154.00] CKT 2
                                                              220510     SEYITOMER   400.00 220521     SEYITOMER   154.00 1     135.0    161.9    142.5    113.6
                                                              222811     ESKISEHIR3  400.00 222821     ESKISEHIR3  154.00 2     143.3    240.0    249.7     96.1
 OPEN LINE FROM BUS 222811 [ESKISEHIR3  400.00] TO BUS 222821 [ESKISEHIR3  154.00] CKT 1 -------------------------- CONTINGENCY DOUBLE OPN LIN 26(222811-222821(
 OPEN LINE FROM BUS 222811 [ESKISEHIR3  400.00] TO BUS 222821 [ESKISEHIR3  154.00] CKT 2
                                                              220510     SEYITOMER   400.00 220521     SEYITOMER   154.00 1     135.0    171.1    142.5    120.0
                                                              222810     ESKISEHIR3  400.00 222822     ESKISEHIR3  154.00 1      92.1    175.5    149.8    117.2
                                                              222810     ESKISEHIR3  400.00 222822     ESKISEHIR3  154.00 2     143.0    272.5    249.7    109.1
 OPEN LINE FROM BUS 227211 [ULUDAG      400.00] TO BUS 227221 [ULUDAG      154.00] CKT 1 -------------------------- CONTINGENCY DOUBLE OPN LIN 27(227211-227221(
 OPEN LINE FROM BUS 227211 [ULUDAG      400.00] TO BUS 227221 [ULUDAG      154.00] CKT 2
                                                              220011     BURSADG     400.00 220024     BURSADG     154.00 1     201.7    272.1    249.2    109.2
                                                              220510     SEYITOMER   400.00 220521     SEYITOMER   154.00 1     135.0    136.3    142.5     95.7
 OPEN LINE FROM BUS 210310 [ADAPAZARI   400.00] TO BUS 415310 [YUNUSEMRETES400.00] CKT 1 -------------------------- CONTINGENCY SINGLE OPN TIE 329 210310-415310
                                                              220510     SEYITOMER   400.00 220521     SEYITOMER   154.00 1     135.0    137.5    142.5     96.5
 OPEN LINE FROM BUS 210311 [ADAPAZARI   400.00] TO BUS 410011 [CAYIRHAN    400.00] CKT 1 -------------------------- CONTINGENCY SINGLE OPN TIE 332 210311-410011
                                                              220510     SEYITOMER   400.00 220521     SEYITOMER   154.00 1     135.0    136.5    142.5     95.8
 OPEN LINE FROM BUS 210410 [ADA1DGKC    400.00] TO BUS 210461 [GEBZEDG     15.750] CKT 1 -------------------------- CONTINGENCY SINGLE OPN TIE 335 210410-210461
                                                              220510     SEYITOMER   400.00 220521     SEYITOMER   154.00 1     135.0    136.8    142.5     96.0
 OPEN LINE FROM BUS 210410 [ADA1DGKC    400.00] TO BUS 210462 [GEBZEDG     15.750] CKT 1 -------------------------- CONTINGENCY SINGLE OPN TIE 336 210410-210462
                                                              220510     SEYITOMER   400.00 220521     SEYITOMER   154.00 1     135.0    136.8    142.5     96.0
 OPEN LINE FROM BUS 210410 [ADA1DGKC    400.00] TO BUS 210463 [GEBZEDG     19.000] CKT 1 -------------------------- CONTINGENCY SINGLE OPN TIE 337 210410-210463